35
FOFMIY
C          6.25120        4.30180        8.00880
C          5.83270        5.61730        7.89220
H          6.33940        6.39880        8.45660
C          4.77050        5.94370        7.05890
C          4.09520        4.97100        6.32250
C          4.51880        3.65440        6.45330
C          5.57390        3.30700        7.28480
H          5.87630        2.26480        7.37580
C          7.47430        3.94760        8.83670
H          7.57740        4.65360        9.65940
H          7.35500        2.95060        9.25820
C          8.71260        3.98990        7.97200
C          9.36370        5.28810        7.88300
C         10.91640        4.33850        6.30620
H         11.78540        4.47320        5.66390
C         10.30420        3.14230        6.34890
H         10.66410        2.32410        5.72680
C          9.18600        2.94610        7.20770
C          3.39650        5.65690        4.18480
H          4.12280        6.46770        4.21410
H          2.51360        5.97910        3.63460
H          3.83730        4.79310        3.68930
C         11.12300        6.70440        6.95730
H         12.03370        6.61040        6.36760
H         11.37340        7.06200        7.95490
H         10.44990        7.41300        6.47700
C          8.58030        1.56300        7.16600
Br         4.21610        7.73550        6.87840
Br         3.63510        2.32360        5.43450
N         10.46520        5.38990        7.05640
O          3.02000        5.29950        5.53450
O          8.97300        6.28960        8.52100
O          8.52550        0.92940        6.14450
O          8.15930        1.11790        8.33330
H          7.80530        0.19260        8.26480
